Version 4
SHEET 1 1680 1120
WIRE 256 32 192 32
WIRE 192 48 192 32
WIRE 256 64 256 32
WIRE 192 80 192 48
WIRE 768 80 768 16
WIRE -320 96 -320 32
WIRE 192 128 192 112
WIRE 192 128 16 128
WIRE 448 128 192 128
WIRE 16 160 16 128
WIRE 16 160 -48 160
WIRE 448 160 448 128
WIRE 512 160 448 160
WIRE 16 176 16 160
WIRE 448 176 448 160
WIRE 768 176 768 144
WIRE -320 192 -320 160
WIRE -48 208 -48 160
WIRE 16 208 -48 208
WIRE 512 208 512 160
WIRE 512 208 448 208
WIRE 64 240 32 240
WIRE 400 240 368 240
WIRE 16 272 16 256
WIRE 160 272 16 272
WIRE 368 272 368 240
WIRE 368 272 240 272
WIRE -192 304 -192 208
WIRE 656 304 656 208
WIRE -208 352 -288 352
WIRE -16 352 -112 352
WIRE 16 352 16 272
WIRE 16 352 -16 352
WIRE 448 352 448 256
WIRE 560 352 448 352
WIRE 640 352 560 352
WIRE 832 352 736 352
WIRE 64 384 64 240
WIRE 160 384 64 384
WIRE 448 384 448 352
WIRE 448 384 240 384
WIRE 16 400 16 352
WIRE 448 400 448 384
WIRE -160 432 -160 352
WIRE 688 432 688 352
WIRE 16 448 -64 448
WIRE 528 448 448 448
WIRE 64 480 64 384
WIRE 64 480 32 480
WIRE 368 480 368 272
WIRE 400 480 368 480
WIRE -288 512 -288 448
WIRE -64 512 -64 448
WIRE 16 512 16 496
WIRE 16 512 -64 512
WIRE 448 512 448 496
WIRE 528 512 528 448
WIRE 528 512 448 512
WIRE 16 576 16 512
WIRE 256 576 16 576
WIRE 448 576 448 512
WIRE 448 576 256 576
WIRE 256 608 256 576
WIRE -288 640 -288 592
FLAG 256 608 0
FLAG -160 432 0
FLAG 688 432 0
FLAG -320 192 0
FLAG -288 640 0
FLAG 768 176 0
FLAG -16 352 Q
FLAG 560 352 QB
FLAG 656 208 WL
FLAG -192 208 WL
FLAG 832 352 BL
FLAG -288 352 BLB
FLAG -288 448 WL
FLAG -320 32 BL
FLAG 768 16 BLB
FLAG 256 64 0
SYMBOL pmos 400 160 R0
SYMATTR InstName MP1
SYMATTR Value l=20n w=320n
SYMBOL pmos 32 160 M0
SYMATTR InstName MP2
SYMATTR Value l=20n w=320n
SYMBOL nmos 400 400 R0
SYMATTR InstName MN1
SYMATTR Value l=20n w=960n
SYMBOL nmos 32 400 M0
SYMATTR InstName MN2
SYMATTR Value l=20n w=960n
SYMBOL nmos 736 304 R90
SYMATTR InstName MA1
SYMATTR Value l=20n w=128n
SYMBOL nmos -112 304 R90
SYMATTR InstName MA2
SYMATTR Value l=20n w=128n
SYMBOL voltage 192 16 R180
WINDOW 123 0 0 Left 0
WINDOW 39 0 0 Left 0
SYMATTR InstName VDD
SYMATTR Value 0.85
SYMBOL voltage -320 64 R0
WINDOW 3 -17 107 Right 2
WINDOW 123 0 0 Left 0
WINDOW 39 0 0 Left 0
SYMATTR Value 0.85
SYMATTR InstName VBL
SYMBOL voltage 768 48 R0
WINDOW 123 0 0 Left 0
WINDOW 39 0 0 Left 0
SYMATTR Value 0.85
SYMATTR InstName VBLB
SYMBOL voltage -288 496 R0
WINDOW 3 -24 94 Right 2
WINDOW 123 0 0 Left 0
WINDOW 39 0 0 Left 0
SYMATTR Value 0.85
SYMATTR InstName VWL
SYMBOL voltage 144 272 R270
WINDOW 0 32 56 VTop 2
WINDOW 3 -32 56 VBottom 2
WINDOW 123 0 0 Left 0
WINDOW 39 0 0 Left 0
SYMATTR InstName VQ
SYMATTR Value 0.425
SYMBOL voltage 144 384 R270
WINDOW 0 32 56 VTop 2
WINDOW 3 -32 56 VBottom 2
WINDOW 123 0 0 Left 0
WINDOW 39 0 0 Left 0
SYMATTR InstName VQB
SYMATTR Value 0.425
TEXT -544 680 Left 2 !** 16nm NMOS Model**
TEXT -544 704 Left 2 !.model nmos nmos level=9 version=105.03 eot=8e-10
TEXT -544 728 Left 2 !+ tfin=12n phig=4.4061 u0=0.0448 vsat=90000
TEXT -544 752 Left 2 !+ rdsw=100 cdsc=0.018 cit=13e-6
TEXT 400 680 Left 2 !** 16nm PMOS Model**
TEXT 400 704 Left 2 !.model pmos pmos level=9 version=105.03 eot=8e-10
TEXT 400 728 Left 2 !+ tfin=12n phig=4.7642 u0=0.03 vsat=88000
TEXT 400 752 Left 2 !+ rdsw=100 cdsc=0.018 cit=13e-6
TEXT 224 16 Left 2 !** SNM Analysis **
TEXT 224 40 Left 2 !.dc VQ 0 0.85 0.01 VQB 0 0.85 0.01
TEXT 224 64 Left 2 !.ic V(Q)=0.85 V(QB)=0
TEXT 224 88 Left 2 !.measure SNM param sqrt((0.425-V(Q))^2+(0.425-V(QB))^2)
RECTANGLE Normal 96 680 352 744 2
RECTANGLE Normal -608 680 -352 744 2
